output/2_TAP2_1/Cargas_MT_DU08_2_TAP2_1.dss
New "Load.MT_8444_M1" bus1="84441.1.2.3.4" phases=3 conn=delta model=2 kv=13.8 kw = 6307.101440428809 pf=0.92 status=variable vmaxpu=1.5 vminpu=0.93 daily="1_DU" 
New "Load.MT_8444_M2" bus1="84441.1.2.3.4" phases=3 conn=delta model=3 kv=13.8 kw = 6307.101440428809 pf=0.92 status=variable vmaxpu=1.5 vminpu=0.93 daily="1_DU"
 
New "Load.MT_8266_M1" bus1="82661.1.2.3.4" phases=3 conn=delta model=2 kv=13.8 kw = 5248.8600801793355 pf=0.92 status=variable vmaxpu=1.5 vminpu=0.93 daily="5_DU" 
New "Load.MT_8266_M2" bus1="82661.1.2.3.4" phases=3 conn=delta model=3 kv=13.8 kw = 5248.8600801793355 pf=0.92 status=variable vmaxpu=1.5 vminpu=0.93 daily="5_DU"
 
New "Load.MT_8092_M1" bus1="80921.1.2.3.4" phases=3 conn=delta model=2 kv=13.8 kw = 1267.1131935269248 pf=0.92 status=variable vmaxpu=1.5 vminpu=0.93 daily="6_DU" 
New "Load.MT_8092_M2" bus1="80921.1.2.3.4" phases=3 conn=delta model=3 kv=13.8 kw = 1267.1131935269248 pf=0.92 status=variable vmaxpu=1.5 vminpu=0.93 daily="6_DU"
 
New "Load.MT_7769_M1" bus1="77691.1.2.3.4" phases=3 conn=delta model=2 kv=13.8 kw = 10268.152269304173 pf=0.92 status=variable vmaxpu=1.5 vminpu=0.93 daily="1_DU" 
New "Load.MT_7769_M2" bus1="77691.1.2.3.4" phases=3 conn=delta model=3 kv=13.8 kw = 10268.152269304173 pf=0.92 status=variable vmaxpu=1.5 vminpu=0.93 daily="1_DU"
 
New "Load.MT_7632_M1" bus1="76321.1.2.3.4" phases=3 conn=delta model=2 kv=13.8 kw = 32764.731377509546 pf=0.92 status=variable vmaxpu=1.5 vminpu=0.93 daily="6_DU" 
New "Load.MT_7632_M2" bus1="76321.1.2.3.4" phases=3 conn=delta model=3 kv=13.8 kw = 32764.731377509546 pf=0.92 status=variable vmaxpu=1.5 vminpu=0.93 daily="6_DU"
 
New "Load.MT_7595_M1" bus1="75951.1.2.3.4" phases=3 conn=delta model=2 kv=13.8 kw = 5268.1709489817185 pf=0.92 status=variable vmaxpu=1.5 vminpu=0.93 daily="3_DU" 
New "Load.MT_7595_M2" bus1="75951.1.2.3.4" phases=3 conn=delta model=3 kv=13.8 kw = 5268.1709489817185 pf=0.92 status=variable vmaxpu=1.5 vminpu=0.93 daily="3_DU"
 
New "Load.MT_7322_M1" bus1="73221.1.2.3.4" phases=3 conn=delta model=2 kv=13.8 kw = 49907.32920096887 pf=0.92 status=variable vmaxpu=1.5 vminpu=0.93 daily="1_DU" 
New "Load.MT_7322_M2" bus1="73221.1.2.3.4" phases=3 conn=delta model=3 kv=13.8 kw = 49907.32920096887 pf=0.92 status=variable vmaxpu=1.5 vminpu=0.93 daily="1_DU"
 
New "Load.MT_6803_M1" bus1="68031.1.2.3.4" phases=3 conn=delta model=2 kv=13.8 kw = 135817.6957910522 pf=0.92 status=variable vmaxpu=1.5 vminpu=0.93 daily="1_DU" 
New "Load.MT_6803_M2" bus1="68031.1.2.3.4" phases=3 conn=delta model=3 kv=13.8 kw = 135817.6957910522 pf=0.92 status=variable vmaxpu=1.5 vminpu=0.93 daily="1_DU"
 
New "Load.MT_7250_M1" bus1="72501.1.2.3.4" phases=3 conn=delta model=2 kv=13.8 kw = 410.9172150582406 pf=0.92 status=variable vmaxpu=1.5 vminpu=0.93 daily="1_DU" 
New "Load.MT_7250_M2" bus1="72501.1.2.3.4" phases=3 conn=delta model=3 kv=13.8 kw = 410.9172150582406 pf=0.92 status=variable vmaxpu=1.5 vminpu=0.93 daily="1_DU"
 
New "Load.MT_126_M1" bus1="1261.1.2.3.4" phases=3 conn=delta model=2 kv=13.8 kw = 2825597.5521461647 pf=0.92 status=variable vmaxpu=1.5 vminpu=0.93 daily="3_DU" 
New "Load.MT_126_M2" bus1="1261.1.2.3.4" phases=3 conn=delta model=3 kv=13.8 kw = 2825597.5521461647 pf=0.92 status=variable vmaxpu=1.5 vminpu=0.93 daily="3_DU"
 
New "Load.MT_1236_M1" bus1="12361.1.2.3.4" phases=3 conn=delta model=2 kv=13.8 kw = 330187.36546385504 pf=0.92 status=variable vmaxpu=1.5 vminpu=0.93 daily="3_DU" 
New "Load.MT_1236_M2" bus1="12361.1.2.3.4" phases=3 conn=delta model=3 kv=13.8 kw = 330187.36546385504 pf=0.92 status=variable vmaxpu=1.5 vminpu=0.93 daily="3_DU"
 
New "Load.MT_1705_M1" bus1="17051.1.2.3.4" phases=3 conn=delta model=2 kv=13.8 kw = 20864.066955910224 pf=0.92 status=variable vmaxpu=1.5 vminpu=0.93 daily="7_DU" 
New "Load.MT_1705_M2" bus1="17051.1.2.3.4" phases=3 conn=delta model=3 kv=13.8 kw = 20864.066955910224 pf=0.92 status=variable vmaxpu=1.5 vminpu=0.93 daily="7_DU"
 
New "Load.MT_461_M1" bus1="4611.1.2.3.4" phases=3 conn=delta model=2 kv=13.8 kw = 13416.92488236674 pf=0.92 status=variable vmaxpu=1.5 vminpu=0.93 daily="1_DU" 
New "Load.MT_461_M2" bus1="4611.1.2.3.4" phases=3 conn=delta model=3 kv=13.8 kw = 13416.92488236674 pf=0.92 status=variable vmaxpu=1.5 vminpu=0.93 daily="1_DU"
 
New "Load.MT_427_M1" bus1="4271.1.2.3.4" phases=3 conn=delta model=2 kv=13.8 kw = 18744.514356668347 pf=0.92 status=variable vmaxpu=1.5 vminpu=0.93 daily="1_DU" 
New "Load.MT_427_M2" bus1="4271.1.2.3.4" phases=3 conn=delta model=3 kv=13.8 kw = 18744.514356668347 pf=0.92 status=variable vmaxpu=1.5 vminpu=0.93 daily="1_DU"
 
